LTspice 24.0.12 for Windows
Circuit: * C:\Users\Will\Documents\FYP\Software\Kelpie_Main_Board\Simulation\Battery_Mon_Sim.asc
Start Time: Mon Sep  9 16:31:06 2024
solver = Normal
Maximum thread count: 8
tnom = 27
temp = 27
method = modified trap
Direct Newton iteration for .op point succeeded.
Total elapsed time: 0.214 seconds.

